
+H|a||oQ>i껸BDp~m]Lc|@a-ATB8 WgӃߔ)o.Nq}uOrX鬿7kzQ 14UXO;%*Ig5#R෷P ZwguOQmV-&Qti%}p!dWIP[aC/Ы8D7M=wZ2aŜ]cc*B}D:Qʇ9he!Sn?ǁ<?- l|5<\&U׬`<Ʀ e3<OYT.! ^Z%Fq$f26ݺ,uBWS&;7.RzC4\  cL2/4! e}vs b[*TE%(BcH}oZ1aSrp> ?p6:")u)-$fFJH!c߼oE_A"ԇ򜴲k-5@M8c*QXZ"cjI'à$hSm]yOuz˪x8`E6:#+V6iLiƳ$@.$.̨oJ.܈SOVC ╼ hӫ"Mm7s V;*;[sYֆ2[[ɺMxq`9:ƃ&/=K1E8Y{D(e so~^toO6/BaZ~ya\H!x<`]ODx~ܾ]zgDKs]qv6vm۫bN|J|oGfr~Η<'#HV(!ǐM&AACZA+m&\O.6˳&F85!,˧Z{C->Dˡss"DHgG!^9JsMP-CR·%yxdMQ-Y] P+ꠜ7_bDҚ*Up2Au/7xT `XNH?3Zo 6KEY"<E|eHKwMՉk0?E{K oX"'\ss`<d`MD=w=foE_vXzOO.*Yػ«"GĚdlt\0.O-d҄x]BO~V& E8U6a`)H>zk(6DÑ )TU箅2eBeߟQerzc!"PݻYUPL1^giSk$,t xPv0;"-aSCIS 0W9\ Eo*]uƍb,Chp7oGoxMq1+Lc4-=XcK C˵m^&{(ZfY~V9]h[S_vI{yfY<5i%^G d~%C/#H˷z=P;2M( Q'm2cƎkn hJ)?-iunT%7(}G1LN㳛~Z-ypoC9"q͛aͺs3LkCQ53Jm!:뾨muoh12joheG/ c|5MřN9ޑdcޙEgj}(T 0Zaxa6%Wi@^m@r$МT %iZ\iږ}2tJΟVa]\ a#SW:&&Q"it&bn|'@lH3+LPH3uٴ3[GD57XMחY-E :pjiC02kujtʟ<͒O^å ږtT;N`eWw}V>H%d:̶ĬRW|=WI ]Y+g)JD(|Zh>"$`61Idǹ^Pcʂᅄ:|ѡ.NGll32IV[r|'S|W۾BM>qV;u2g<r%լޑ,M*#t`1Ndg]E,1\,m?P4%3^:m_vkͶ[6ĥLUDc(d]A"^*3jsZ?$ K<oP2*ib~h1 ﺒ "?aZLJ+3LC_aƣo{,F@=C-l$m~2pu9:}[ľuq47<bɻ/Eﵶ%&G7mE<!dYg&Hx)E"VEͬѽt y~V`&E&z{rU9['-ņM>FS#`uJ $-!jK(.K7П^8媖GQp6l/p6 X&5YEAz2~;PF [H\8u<Dٮ:6bKqhǟڌuT)6"\ҧ^~TJ.ɺ(䙫{ Q*`4V1;v#IWBICϻc榫Hnj+D$[s *G.,/EvR<>@3,3RQW-CRQ_f[7Ĭ;ׁ=VdpS1ć>zz~7A۔-|'JF6B3AFǶX5#X~<ՃA+i}`t.}Ľh&/iqGE,1ݘ65B@"ς]&(.D3H]&^@mskF%wI;;H&%`3}/=ǵ  dM J .h"8Bm8-fp"O?Jr6+:d=էdO{`D{jsUio<AєXԻyC|e6tZe@KSa%R{倒Iƙk+hY/zz%Il"'cU<%ge|8pf#u(M\w4HApʔ3ݴ2=]]Mqm~$y u$1dYv)a5vy7-MLB~kdvܙS(MB¡pj`Z#%8pSPl| {5EgIGBf9j{E@w}"*3XTy#U\/M|ˢ ]ݙ";ݸuHאWtm)djr~*7Cwra%?</Jw䷡q`)Q6';|>V"6zl߳c_soGOKU?4$O8 *"Gϒnb*6|9<nB<:=bHcZ[SC>ʂ-v5msMk+9qkA/XoK:MpmC:HRb:5\ق>eZiMXFVW?SM#Q!t5:DsAW2l:f3T~N~APѯԐ<gQV;ɽOď\oRcά:O).Yvy u{ Ϫ1ݿ4S1(lndejg5}h#ZM>Eq;fcM:ڈdVD1WmkKP[Ru9C%gqIeDJh`+0׏0)bt;vұfnqŨм}y`89~vP:*_0ZH<CJs˽{D^c5Y9*K,|q@bqt*CۉN>R|W'2)hv5b:\WRF V4m؜Th!_rSHg(-4~qk?Պ4gJ :[ʵ;O`Vf_T{RxϮeoEr "K@uAs!'mqz9/.]4Z`L GJSkW;)#A(ʭk$GS{ơ[C\O zi8 h|Ȅ9||6V2\nyc/16*ٸͩmo $[juFӱ:km9;}]y&sEDo~fk&ҩKG3K^W'f{E0|lΞS.6z3#WkqC>RZּ4 fx(&F@@@$")WZ6e#}Z>})b@.z%Yfwe&0=|WCC]*?n l#@wS3?҉a)0\WCtc]S <O$E%F';_R7ϗ7J6g+hg!/jȰou˘SW]"''9ny:{ɰ(/硕Ͱ.^ٔ鈱(f9)ja} XH~Yؓ8,?VՎ #~Msr9FEMz߫Uk5"[OlYu} ^md?>Je^v\ON~\;:lX7i\x}TKȵݣٰvMc.}Zm1lYT@IipϸojZNWlAXK**4r\'ma=;BDMOgaURm2sʗ[L9#˚nGGm*Sb$=Ko3#xg! YPQ!feGXLs_eJߖD5`8,5aokXlDU=WuP+9~"[ ?/PBܯH{%Ӏ.F:}6whH,j* uy){ͨwM~OL1j#c~n_PAmL˃[z;KtA[+ϿmmL?jCk֙"-X-DEt\$:15T>/=vh1Cp]qjM"Dƌ>$ALκ`a+.!K%siL}ZrI1㦀g +PBv:D[Cyv\>l0~s#l,pI!rnn1O}wS'N!\%h<OtyOShI0(29b)pM?ٴ}U;N*W Ǽp;M@4f~G S3j)G ̨fo㘹 PiBGq2+.ݎu vc2:w#@㦆_K6, .Ʉp?xcy0:bw=(6WM)~b¤&kv2uVa^=7/I8,MV;xE.5"H2G]0Zҏ].@=Pv]"]cz>qscn)("_>PD(b|m鱚[SAh?q;Bzr `串jBn^ߝC4O,SvA qY6'+uHHKpĜoK5QYLP5!*Zs³uŇ-34 qKdU'ka5-x:wʄ7;7}먎aXZkI` D*4<h4al!鈓QJn؉(ȩK~VM6]GO$ͪ_;?=HSz-FeK]Ctz,w=b{jL@UfƚgPbrdHQ([Xx<9,簋_5x:yBV}wTBT2a0zF ~f58}MG,̏_YIvh%[/)ʒd2+~|W(q9j~ߓhk^ŵplK/Fm~\M.OyA%=d! b`3w"IOH33k,,uy' ੎F&^<:"ƭez46tY@$zcԜ[#tGl vO?ODQc2r3hfcl`Lp)- `=DMigrQNA2@i67(n2~lag8Ӷ1F\(/WV,9Ť< 2(҂W,|'=Wal;qi=Ђ*%.<NchRTZ_2{\?,ug<SŢ$mB*.dhe4wlkʚE=E@Owhڃ>Px˔fnSZ "m-᩠{\x;"5 1Z "g{qs3% aVR}oa&ķ \^_ cPٔ(bx[WhYor=@uR]}jl_{^%,Qer2at^з?#YޮwG4#{+ZȤyߩ+b7MSe䷛_A}Y([6y+nlO%΍Na*'PB.ɋ~.'Ywg>` 3|WL .=k2<W!瓝|,A3 ngJ뜩|f.Zw)ڧ:}YAn2 ֗<l%$|y*Q~m'V@WU>ОV4;qo'L:FWcdۥ4h$XkοHGNӥ386Åc|<<f]]0F\KÇl|2 m--~Ab1VLp^~=TtWtzJ)\:V9'x>{l҉g+|+Կal}Gr2RG{`Kn?e3h!KWWK~F27}NŽs2LN"nwA{jմx2^mGֆY/9#J% ;/8TWQ9G!隹Evu_#Df8v@=u8*d0<0B*ܑ~j$H:%x.Gㄽ{t}Zݶ*CjAJJW.8$`.k;BCjNh$V9BEC'y"_nYdcvΞ7E&S&fyW1Y<W]ID/_s@Cݪh@5Ɠs`bYl':QѠDΗ lxL!P&5 )>&8CQw;;CQN`Z]wC&3ƙc<+lX$ك$#N~t0l]IFη>YxV:$Ir୸Ahk2+;n&s)>%z͓>e&{SGBlz)`J_hkOn%2 a6;Cb`ԍعO"xgֳS)VϬJ̂O!4a,D#p hGQN>GV>!NG܍T7$e(܂k?/Xi(rq:0=:%'> &{*N)쏧gn"8ɤ"70Bȁֽެe,0J܍Q{m3=w eLBpVf.Ԭ''GsP{t,hSia 0-zQ"ll~OS[([1_QW(Շq["BQhOnPP8ibY<PU?Ete*_=3W{<9Da/ďrW( @tl\)ǳmaj1'Vd⹮p6f٢SCjZG^$TDZ#_PLErgLٯU[0mJl{97OAsQ8Om\! ^'Ua'V|<aΙlJҷf`1dcu9gim(H2ʋ6)stb.aLJQaJT`.0pW$Lf=blݾ/99/mNձo߼M"-/@3EpCq\](qX[ naF˛D<4_sZ{,nv%h.!,lD7u;Ȼw_F<6bK8>_aNTM|/ye}v@ꏱ 6}P˘#%AvDqڑٍx(yD}SYMND-ް"ZkVL|A6sQ"mu\|H;RD{83mLC*A;$slK.г9@HG<܇6vNl>nַEuVa,%I(mv~BFnElN*B_Bʸd>`ګi)ص4r3v$i#GxM#'6 {/7K2F$w4ZgW%?lz9yT/:N̮F?0:Loj)ѳU2,3҄gH(_lA3ct8.?:z}2,:0E0qޟ4k}vuE(6x6s[`xsJ8S/u~3(@FVK'^3"g6rȶ s{ 3D8{BU FϻdOc/+-j} ^bD|iAt_&&k3ɌlB Oh l)tf_q;j4vkcy0D{chR&pĠjZo6쓁/9G3`׫d͈RpD*ٗYLf/s<9#,gL{N /FD{{:CXHVV^tbPy8"Fz1W(j_qC_3d?f0 e5v29:j+T^Ww:AqXaErnN=40eb7%Yhz`$cu6_ ]`Ѡ86qW!ۃ^^GU{{%̷ 66mf-dQ@mxJQXn|H%)̅l煹ӱVb["=/z+~ՠ(EpBژE:1]~FZ'8wtLΰ/%CdN ҿR֒άEi`!/H{58펙"@%Yub@~j9ԈXț2`ZJ$қviGo4&epBCvB䳟60,?<#?T;BZ?n!>k"_Z䖥<!Euvo +X?\iżZ]^w3^WLW@Itl-#1%~'iM:-ԏ5xkYF.Pe5֯ Tcn~n4(R\5+8¯*F,fqiH`(UelnwN,PyE`Wi0-x ]_&R@y?4 T[ Ql'}B`i094ٔADua7E*UȳGf{Y幆pu<!e|bDH_EϢWIkʮt|^b/;d4'rmI;1)iA_cE0Npm'ܦD3,fj.[=ҽ:#=AmM!ũNk:86dkߕ&6w$p0*7hEtUhWgPF8;M~Ɩކ3/Pҵ<\jvUk5*&tJ=7uiZkC51tk]I!ޕa UL[JeSbX T$<\6uChkO}oLa]}(86^)#hOQw|T+oUg.Ŗ3ToâTpEӢ+yFCЀɛ/S;6xN%B8>Ȱy_*$5sO\/v4(o,pW -0wl|WRy<T讇0eUMnR}/6Y&5:6>`U!r,Cku&F>YZ3єoY,f#&EcKo[{To:1ݻcHhm^ѢǷhŝá+aH_TkR(T攕N/$ZO}Q;)j"pC\P/kc4lrѓ@꟩0哞Vs >=x>04A&V!w$7R4hvHk;KFJp2S-|YjO*D,\pLXmpuoHj4yh`YoN^aG.u(va,T,ɳPsO  MXYfPyT!-1 .< Gۦ"Lv-^ZEn&JPgu NJq;f: H*z3]mR4),&LU?Fk_ky|^MQٮu1V'9~